%description:

This program is free software: you can redistribute it and/or modify
it under the terms of the GNU General Public License as published by
the Free Software Foundation, either version 3 of the License, or
(at your option) any later version.

This program is distributed in the hope that it will be useful,
but WITHOUT ANY WARRANTY; without even the implied warranty of
MERCHANTABILITY or FITNESS FOR A PARTICULAR PURPOSE.  See the
GNU General Public License for more details.

You should have received a copy of the GNU General Public License
along with this program.  If not, see http://www.gnu.org/licenses/.


Test arrival manager: uncoded data/mac flit pairs

%inifile: omnetpp.ini
[General]
sim-time-limit = 100ns
**.cmdenv-log-level = debug

**.networkCoding = false

**.am.arqLimit = 1
**.am.arqIssueTimeout = 8
**.am.arqAnswerTimeoutBase = 5
**.am.lastArqWaitForOngoingVerifications = true

**.awaitSendRequests = true

**.encUnits = 2
**.authUnits = 2
**.busyCyclesEnc = 5
**.busyCyclesAuth = 5
**.encUnit[*].computeCycles = 5
**.authUnit[*].computeCycles = 5

%file: test.ned
import HaecComm.Core.Clock;
import HaecComm.Buffers.PacketQueue;
import HaecComm.MW.ArrivalManagerFlit;
import HaecComm.MW.Crypto.*;

network Test {
    parameters:
        bool networkCoding;
        int rows = 4;
        int columns = 4;
        int id = 0;
        int encUnits;
        int authUnits;
        double clockPeriod @unit(s) = 2ns;
    submodules:
        clock: Clock { inter = clockPeriod; }
        am: ArrivalManagerFlit;
        appQ: PacketQueue;
        authQ: PacketQueue;
        verQ: PacketQueue;
        decQ: PacketQueue;
        entryGuard: EntryGuardFlit {
            gates:
                encOut[encUnits];
                authOut[authUnits];
        }
        encUnit[encUnits]: EncFlit;
        authUnit[authUnits]: AuthFlit;
        exitGuard: ExitGuardFlit {
            gates:
                encIn[encUnits];
                authIn[authUnits];
        }
        testapp: AMFlitUCTestApp;
    connections:
        testapp.appIn <-- am.appOut;
        testapp.arqIn <-- am.arqOut;
        testapp.netOut --> am.netIn;

        am.verOut --> verQ.in;
        entryGuard.verIn <-- verQ.out;

        am.decOut --> decQ.in;
        entryGuard.decIn <-- decQ.out;

        testapp.appQOut --> appQ.in;
        entryGuard.appIn <-- appQ.out;

        exitGuard.entryOut --> authQ.in;
        entryGuard.exitIn <-- authQ.out;

        for i=0..encUnits-1 {
            encUnit[i].in <-- entryGuard.encOut[i];
            encUnit[i].out --> exitGuard.encIn[i];
        }

        for i=0..authUnits-1 {
            authUnit[i].in <-- entryGuard.authOut[i];
            authUnit[i].out --> exitGuard.authIn[i];
        }

        exitGuard.appOut --> am.cryptoIn;
        exitGuard.netOut --> testapp.retBufIn;
}

%contains-regex: stdout
Got flit flit1-dec
Source \(3,3\)
Target \(0,0\)
FID 123
Mode MODE_DATA
.*
Got ARQ arq-666-s\(0,0\)-t\(3,3\)
Source \(0,0\)
Target \(3,3\)
FID 666
Mode MODE_ARQ_TELL_MISSING
ARQ mode ARQ_DATA_MAC
.*
Got ARQ arq-777-s\(0,0\)-t\(3,3\)
Source \(0,0\)
Target \(3,3\)
FID 777
Mode MODE_ARQ_TELL_MISSING
ARQ mode ARQ_DATA_MAC
.*
Got flit flit3-new-dec
Source \(3,3\)
Target \(0,0\)
FID 666
Mode MODE_DATA

%contains: stdout
ARQ timeout triggered for source (3,3), ID 777
ARQ limit reached for source (3,3), ID 777

%not-contains: stdout
undisposed object:

%not-contains: stdout
-- check module destructor
