%description:

This program is free software: you can redistribute it and/or modify
it under the terms of the GNU General Public License as published by
the Free Software Foundation, either version 3 of the License, or
(at your option) any later version.

This program is distributed in the hope that it will be useful,
but WITHOUT ANY WARRANTY; without even the implied warranty of
MERCHANTABILITY or FITNESS FOR A PARTICULAR PURPOSE.  See the
GNU General Public License for more details.

You should have received a copy of the GNU General Public License
along with this program.  If not, see http://www.gnu.org/licenses/.


Test arrival manager: network coded data/mac flit pairs ARQ timeouts

%inifile: omnetpp.ini
[General]
sim-time-limit = 500ns
**.cmdenv-log-level = debug

**.networkCoding = true
**.generationSize = 2
**.numCombinations = 3

**.decoder.internalType = "HaecComm.MW.NetworkCoding.DecoderImplFlit"

**.am.arqLimit = 1
**.am.arqIssueTimeout = 8
**.am.arqAnswerTimeoutBase = 5
**.am.lastArqWaitForOngoingVerifications = true

**.awaitSendRequests = true

**.encUnits = 10
**.authUnits = 10
**.busyCyclesEnc = 5
**.busyCyclesAuth = 5
**.encUnit[*].computeCycles = 5
**.authUnit[*].computeCycles = 5

%file: test.ned
import HaecComm.Core.Clock;
import HaecComm.Buffers.PacketQueue;
import HaecComm.MW.ArrivalManagerFlit;
import HaecComm.MW.Crypto.*;
import HaecComm.MW.NetworkCoding.*;

network Test {
    parameters:
        bool useGlobalTransmissionIds = false;
        bool networkCoding;
        int generationSize;
        int rows = 4;
        int columns = 4;
        int id = 0;
        int encUnits;
        int authUnits;
        double clockPeriod @unit(s) = 2ns;
    submodules:
        clock: Clock { inter = clockPeriod; }
        am: ArrivalManagerFlit;
        appQ: PacketQueue;
        authQ: PacketQueue;
        verQ: PacketQueue;
        decQ: PacketQueue;
        decoder: Decoder;
        entryGuard: EntryGuardFlit {
            gates:
                encOut[encUnits];
                authOut[authUnits];
        }
        encUnit[encUnits]: EncFlit;
        authUnit[authUnits]: AuthFlit;
        exitGuard: ExitGuardFlit {
            gates:
                encIn[encUnits];
                authIn[authUnits];
        }
        testapp: AMFlitG2C3TimeoutsTestApp;
    connections:
        testapp.appIn <-- am.appOut;
        testapp.arqIn <-- am.arqOut;
        testapp.netOut --> am.netIn;

        am.verOut --> verQ.in;
        entryGuard.verIn <-- verQ.out;

        am.decOut --> decoder.in;
        decoder.out --> decQ.in;
        entryGuard.decIn <-- decQ.out;

        testapp.appQOut --> appQ.in;
        entryGuard.appIn <-- appQ.out;

        exitGuard.entryOut --> authQ.in;
        entryGuard.exitIn <-- authQ.out;

        for i=0..encUnits-1 {
            encUnit[i].in <-- entryGuard.encOut[i];
            encUnit[i].out --> exitGuard.encIn[i];
        }

        for i=0..authUnits-1 {
            authUnit[i].in <-- entryGuard.authOut[i];
            authUnit[i].out --> exitGuard.authIn[i];
        }

        exitGuard.appOut --> am.cryptoIn;
        exitGuard.netOut --> testapp.retBufIn;
}

%contains-regex: stdout
8 Got ARQ arq-123-s\(0,0\)-t\(3,3\)
Source \(0,0\)
Target \(3,3\)
GID 123
Mode MODE_ARQ_TELL_RECEIVED
ARQ modes \(1,ARQ_DATA\)
.*
12 Got ARQ arq-123-s\(0,0\)-t\(2,2\)
Source \(0,0\)
Target \(2,2\)
GID 123
Mode MODE_ARQ_TELL_RECEIVED
ARQ modes \(2,ARQ_MAC\)\(5,ARQ_DATA\)
.*
15 Got ARQ arq-222-s\(0,0\)-t\(3,3\)
Source \(0,0\)
Target \(3,3\)
GID 222
Mode MODE_ARQ_TELL_MISSING
ARQ modes \(1,ARQ_DATA_MAC\)\(42,ARQ_DATA_MAC\)
.*
25 Got ARQ arq-42-s\(0,0\)-t\(1,1\)
Source \(0,0\)
Target \(1,1\)
GID 42
Mode MODE_ARQ_TELL_MISSING
ARQ modes \(25,ARQ_DATA\)\(28,ARQ_DATA\)

%not-contains: stdout
undisposed object:

%not-contains: stdout
-- check module destructor
