%description:

This program is free software: you can redistribute it and/or modify
it under the terms of the GNU General Public License as published by
the Free Software Foundation, either version 3 of the License, or
(at your option) any later version.

This program is distributed in the hope that it will be useful,
but WITHOUT ANY WARRANTY; without even the implied warranty of
MERCHANTABILITY or FITNESS FOR A PARTICULAR PURPOSE.  See the
GNU General Public License for more details.

You should have received a copy of the GNU General Public License
along with this program.  If not, see http://www.gnu.org/licenses/.


Test signal emissions of the clock module

%inifile: omnetpp.ini
[General]
sim-time-limit = 10ns

**.clock.inter = 2ns

%file: test.ned
import HaecComm.Core.Clock;

network Test {
    submodules:
        clock: Clock;
        testapp: ClockTestApp;
}

%contains-regex: stdout
Clock cycle 0
.*
Clock cycle 1
.*
Clock cycle 2
.*
Clock cycle 3
.*
Clock cycle 4
.*
Clock cycle 5

%not-contains: stdout
undisposed object:

%not-contains: stdout
-- check module destructor
