%description:

This program is free software: you can redistribute it and/or modify
it under the terms of the GNU General Public License as published by
the Free Software Foundation, either version 3 of the License, or
(at your option) any later version.

This program is distributed in the hope that it will be useful,
but WITHOUT ANY WARRANTY; without even the implied warranty of
MERCHANTABILITY or FITNESS FOR A PARTICULAR PURPOSE.  See the
GNU General Public License for more details.

You should have received a copy of the GNU General Public License
along with this program.  If not, see http://www.gnu.org/licenses/.


Test network coding: decoder module

%inifile: omnetpp.ini
[General]
sim-time-limit = 20ns

**.clock.inter = 2ns

**.decoder.generationSize = 2
**.decoder.numCombinations = 3
**.decoder.internalType = "HaecComm.MW.NetworkCoding.DecoderImplSplit"

%file: test.ned
import HaecComm.Core.Clock;
import HaecComm.MW.SplitMerger;
import HaecComm.MW.NetworkCoding.Decoder;

network Test {
    parameters:
        bool useGlobalTransmissionIds = false;
    submodules:
        clock: Clock;
        decoder: Decoder;
        merger: SplitMerger;
        testapp: DecoderSplitTestApp;
    connections:
        decoder.out --> merger.in;
        testapp.in <-- merger.out;
        testapp.out --> decoder.in;
}

%contains-regex: stdout
Got flit uc-222-s\(0,0\)-t\(1,1\)
Source \(0,0\)
Target \(1,1\)
FID 222
Mode MODE_DATA

%not-contains: stdout
undisposed object:

%not-contains: stdout
-- check module destructor
