%description:
Test network coding: decoder module

%inifile: omnetpp.ini
[General]
sim-time-limit = 20ns

**.clock.inter = 2ns

**.decoder.generationSize = 2
**.decoder.numCombinations = 3
**.decoder.internalType = "HaecComm.MW.NetworkCoding.DecoderImplGen"

%file: test.ned
import HaecComm.Core.Clock;
import HaecComm.MW.NetworkCoding.Decoder;

network Test {
    parameters:
        bool useGlobalTransmissionIds = false;
    submodules:
        clock: Clock;
        decoder: Decoder;
        testapp: DecoderGenTestApp;
    connections:
        testapp.in <-- decoder.out;
        testapp.out --> decoder.in;
}

%contains-regex: stdout
Got flit uc-222-s\(0,0\)-t\(1,1\)
Source \(0,0\)
Target \(1,1\)
FID 222
OrigID0 123
.*
Got flit uc-333-s\(0,0\)-t\(1,1\)
Source \(0,0\)
Target \(1,1\)
FID 333
OrigID0 123
.*
Got flit mac12
Source \(0,0\)
Target \(1,1\)
FID 123
No OrigID0

%not-contains: stdout
undisposed object:

%not-contains: stdout
-- check module destructor
