%description:
Test network coding: decoder module

%inifile: omnetpp.ini
[General]
sim-time-limit = 20ns

**.clock.inter = 2ns

**.decoder.generationSize = 2
**.decoder.numCombinations = 3
**.decoder.internalType = "HaecComm.MW.NetworkCoding.DecoderImplSplit"

%file: test.ned
import HaecComm.Core.Clock;
import HaecComm.MW.SplitMerger;
import HaecComm.MW.NetworkCoding.Decoder;

network Test {
    parameters:
        bool useGlobalTransmissionIds = false;
    submodules:
        clock: Clock;
        decoder: Decoder;
        merger: SplitMerger;
        testapp: DecoderSplitTestApp;
    connections:
        decoder.out --> merger.in;
        testapp.in <-- merger.out;
        testapp.out --> decoder.in;
}

%contains-regex: stdout
Got flit uc-222-s\(0,0\)-t\(1,1\)
Source \(0,0\)
Target \(1,1\)
FID 222
Mode MODE_DATA

%not-contains: stdout
undisposed object:

%not-contains: stdout
-- check module destructor
