%description:

This program is free software: you can redistribute it and/or modify
it under the terms of the GNU General Public License as published by
the Free Software Foundation, either version 3 of the License, or
(at your option) any later version.

This program is distributed in the hope that it will be useful,
but WITHOUT ANY WARRANTY; without even the implied warranty of
MERCHANTABILITY or FITNESS FOR A PARTICULAR PURPOSE.  See the
GNU General Public License for more details.

You should have received a copy of the GNU General Public License
along with this program.  If not, see http://www.gnu.org/licenses/.


Test retransmission buffer: Network coded (G2C3) data/mac flit pairs

%inifile: omnetpp.ini
[General]
sim-time-limit = 100ns
**.cmdenv-log-level = debug

**.clock.inter = 2ns

**.rt.bufSize = 10
**.rt.internalType = "HaecComm.Buffers.RetransmissionBufferImplFlit"

%file: test.ned
import HaecComm.Core.Clock;
import HaecComm.Buffers.RetransmissionBuffer;

network Test {
    parameters:
        bool networkCoding = true;
        int numCombinations = 3;
    submodules:
        clock: Clock;
        rt: RetransmissionBuffer;
        testapp: RBFlitG2C3TestApp;
    connections:
        testapp.dataOut --> rt.dataIn;
        testapp.arqOut --> rt.arqIn;
        testapp.dataIn <-- rt.out;
}

%contains-regex: stdout
1 Got flit data1
Source \(3,3\)
Target \(0,0\)
GID 123
GEV 2
Mode MODE_DATA
.*
2 Got flit mac1
Source \(3,3\)
Target \(0,0\)
GID 123
GEV 2
Mode MODE_MAC
.*
3 Got flit data2
Source \(3,3\)
Target \(0,0\)
GID 123
GEV 19
Mode MODE_DATA
.*
4 Got flit mac2
Source \(3,3\)
Target \(0,0\)
GID 123
GEV 19
Mode MODE_MAC
.*
5 Got flit mac1
Source \(3,3\)
Target \(0,0\)
GID 123
GEV 2
Mode MODE_MAC
.*
6 Got flit data2
Source \(3,3\)
Target \(0,0\)
GID 123
GEV 19
Mode MODE_DATA
.*
7 Got flit mac2
Source \(3,3\)
Target \(0,0\)
GID 123
GEV 19
Mode MODE_MAC
.*
8 Got flit data1
Source \(3,3\)
Target \(0,0\)
GID 123
GEV 2
Mode MODE_DATA
.*
9 Got flit data2
Source \(3,3\)
Target \(0,0\)
GID 123
GEV 19
Mode MODE_DATA
.*
10 Got flit mac2
Source \(3,3\)
Target \(0,0\)
GID 123
GEV 19
Mode MODE_MAC

%contains: stdout
Failed to answer ARQ - Specified GEV not in buffer any more

%not-contains: stdout
Target (1,0)

%not-contains: stdout
FID 124

%not-contains: stdout
undisposed object:

%not-contains: stdout
-- check module destructor
