[General]
network = SimpleDemo
sim-time-limit = 30s
#debug-on-errors = true